Version 4
SHEET 1 1016 1572
WIRE -16 -112 -160 -112
WIRE 240 -112 64 -112
WIRE 480 -112 320 -112
WIRE 480 -32 480 -112
WIRE -160 0 -160 -112
WIRE -160 144 -160 80
WIRE 48 144 -160 144
WIRE 480 144 480 48
WIRE 480 144 48 144
WIRE 48 160 48 144
FLAG 48 160 0
SYMBOL ind 224 -96 R270
WINDOW 0 32 56 VTop 2
WINDOW 3 5 56 VBottom 2
SYMATTR InstName L1
SYMATTR Value 5µ
SYMBOL res 80 -128 R90
WINDOW 0 0 56 VBottom 2
WINDOW 3 32 56 VTop 2
SYMATTR InstName R1
SYMATTR Value 50
SYMBOL res 464 -48 R0
SYMATTR InstName R2
SYMATTR Value 1000
SYMBOL voltage -160 -16 R0
WINDOW 123 24 124 Left 2
WINDOW 39 0 0 Left 0
SYMATTR InstName V1
SYMATTR Value ""
SYMATTR Value2 AC 1
TEXT 480 -112 Left 2 ;Vout
TEXT -96 248 Left 2 !.ac dec 100 5 500Meg
