Version 4
SHEET 1 2252 680
WIRE 496 -192 240 -192
WIRE -224 -144 -272 -144
WIRE 160 -144 64 -144
WIRE -224 -128 -224 -144
WIRE 64 -128 64 -144
WIRE 496 -128 496 -192
WIRE 496 -128 384 -128
WIRE 576 -128 496 -128
WIRE 592 -128 576 -128
WIRE -80 -112 -176 -112
WIRE 16 -112 -80 -112
WIRE -80 -16 -80 -112
WIRE -80 -16 -176 -16
WIRE 16 -16 -80 -16
WIRE -176 16 -176 -16
WIRE -80 16 -80 -16
WIRE 16 16 16 -16
WIRE 576 16 576 -64
WIRE 992 16 576 16
WIRE 1136 16 992 16
WIRE 1344 16 1232 16
WIRE 1456 16 1344 16
WIRE -560 32 -720 32
WIRE -224 32 -224 -48
WIRE -224 32 -480 32
WIRE 64 32 64 -48
WIRE 64 32 -32 32
WIRE 240 32 240 -192
WIRE 240 32 64 32
WIRE -720 48 -720 32
WIRE 384 48 384 -64
WIRE 384 48 304 48
WIRE 1456 48 1456 16
WIRE 304 64 304 48
WIRE 992 64 992 16
WIRE 1344 64 1344 16
WIRE -272 80 -272 -144
WIRE -272 80 -384 80
WIRE -224 80 -272 80
WIRE 160 80 160 -144
WIRE 160 80 64 80
WIRE 240 80 160 80
WIRE 1232 80 1232 16
WIRE 1232 80 1216 80
WIRE 576 96 576 16
WIRE 1136 96 1136 16
WIRE 1152 96 1136 96
WIRE -176 112 -176 96
WIRE -80 112 -80 96
WIRE 16 112 16 96
WIRE 384 112 384 48
WIRE 1248 112 1216 112
WIRE -720 144 -720 128
WIRE 992 176 992 128
WIRE 1248 176 1248 112
WIRE 1248 176 992 176
WIRE 1344 176 1344 128
WIRE 1344 176 1248 176
WIRE 1456 176 1456 128
WIRE 1456 176 1344 176
WIRE 992 192 992 176
WIRE 384 272 384 176
WIRE 448 272 384 272
WIRE 576 272 576 160
WIRE 576 272 448 272
WIRE 240 352 240 80
WIRE 448 352 448 272
WIRE 448 352 240 352
FLAG -720 144 0
FLAG 16 112 0
FLAG -176 112 0
FLAG -176 -64 0
FLAG 16 -64 0
FLAG -80 112 0
FLAG -384 80 0
FLAG 304 64 0
FLAG 992 192 0
SYMBOL voltage -720 32 R0
WINDOW 123 0 0 Left 0
WINDOW 39 0 0 Left 0
SYMATTR InstName V1
SYMATTR Value SINE(0 325 50 0 0 0 0)
SYMBOL res -464 16 R90
WINDOW 0 0 56 VBottom 2
WINDOW 3 32 56 VTop 2
SYMATTR InstName R1
SYMATTR Value 50
SYMBOL g -176 0 R0
SYMATTR InstName G1
SYMATTR Value 1
SYMBOL g 16 0 M0
WINDOW 0 -10 9 Right 2
WINDOW 3 -15 96 Right 2
SYMATTR InstName G2
SYMATTR Value {1/N}
SYMBOL g -224 -144 M0
WINDOW 0 -10 10 Right 2
WINDOW 3 -16 104 Right 2
SYMATTR InstName G3
SYMATTR Value 1
SYMBOL g 64 -144 R0
WINDOW 0 13 18 Left 2
WINDOW 3 12 101 Left 2
SYMATTR InstName G4
SYMATTR Value {1/N}
SYMBOL res -96 0 R0
SYMATTR InstName R2
SYMATTR Value 1G
SYMBOL diode 400 -64 R180
WINDOW 0 24 64 Left 2
WINDOW 3 24 0 Left 2
SYMATTR InstName D1
SYMATTR Value 1N914
SYMBOL diode 560 -128 R0
SYMATTR InstName D2
SYMATTR Value 1N914
SYMBOL diode 592 160 R180
WINDOW 0 24 64 Left 2
WINDOW 3 24 0 Left 2
SYMATTR InstName D3
SYMATTR Value 1N914
SYMBOL diode 400 176 R180
WINDOW 0 24 64 Left 2
WINDOW 3 24 0 Left 2
SYMATTR InstName D4
SYMATTR Value 1N914
SYMBOL res 1440 32 R0
SYMATTR InstName RL
SYMATTR Value 100
SYMBOL cap 976 64 R0
WINDOW 3 55 56 Right 1
SYMATTR Value 2200µ
SYMATTR InstName C1
SYMBOL AutoGenerated\\7805 1184 96 R0
SYMATTR InstName U1
SYMBOL cap 1328 64 R0
SYMATTR InstName C2
SYMATTR Value 5µ
TEXT -144 224 Top 1 ;This example schematic is supplied for informational/educational purposes only.
TEXT -72 -168 Bottom 2 ;A ideal transformer with two windings.\nWinding ratio specified with parameter N
TEXT -192 152 Left 2 !.param N=15/230 ; turns ratio
TEXT 760 256 Left 0 !.model 1N751 D(Is=1.004f Rs=.5875 Ikf=0 N=1 Xti=3 Eg=1.11 Cjo=160p M=.5484 Vj=.75 Fc=.5 Isr=1.8n Nr=2 Bv=5.1 Ibv=27.721m Nbv=1.1779 Ibvl=1.1646m Nbvl=21.894 Tbv1=176.47u Vpk=5.1 mfg=Motorola type=zener)
TEXT 776 320 Left 2 !;step param RL 100 5000 100
TEXT 912 408 Left 2 !.tran 0.1s
RECTANGLE Normal 192 168 -336 -240 2
