Version 4
SHEET 1 1612 768
WIRE -320 -288 -576 -288
WIRE -1040 -240 -1088 -240
WIRE -656 -240 -752 -240
WIRE -1040 -224 -1040 -240
WIRE -752 -224 -752 -240
WIRE -320 -224 -320 -288
WIRE -320 -224 -432 -224
WIRE -240 -224 -320 -224
WIRE -896 -208 -992 -208
WIRE -800 -208 -896 -208
WIRE -240 -192 -240 -224
WIRE -896 -112 -896 -208
WIRE -896 -112 -992 -112
WIRE -800 -112 -896 -112
WIRE -992 -80 -992 -112
WIRE -896 -80 -896 -112
WIRE -800 -80 -800 -112
WIRE -240 -80 -240 -128
WIRE 128 -80 -240 -80
WIRE 560 -80 208 -80
WIRE 608 -80 560 -80
WIRE 768 -80 704 -80
WIRE -1376 -64 -1536 -64
WIRE -1040 -64 -1040 -144
WIRE -1040 -64 -1296 -64
WIRE -752 -64 -752 -144
WIRE -752 -64 -848 -64
WIRE -576 -64 -576 -288
WIRE -576 -64 -752 -64
WIRE -1536 -48 -1536 -64
WIRE -432 -48 -432 -160
WIRE -432 -48 -512 -48
WIRE 768 -48 768 -80
WIRE -512 -32 -512 -48
WIRE 560 -32 560 -80
WIRE -1088 -16 -1088 -240
WIRE -1088 -16 -1200 -16
WIRE -1040 -16 -1088 -16
WIRE -656 -16 -656 -240
WIRE -656 -16 -752 -16
WIRE -576 -16 -656 -16
WIRE -240 -16 -240 -80
WIRE 704 -16 704 -80
WIRE 704 -16 688 -16
WIRE -432 0 -432 -48
WIRE 608 0 608 -80
WIRE 624 0 608 0
WIRE -992 16 -992 0
WIRE -896 16 -896 0
WIRE -800 16 -800 0
WIRE 720 16 688 16
WIRE -1536 48 -1536 32
WIRE 560 80 560 32
WIRE 560 80 208 80
WIRE 720 80 720 16
WIRE 720 80 560 80
WIRE 768 80 768 32
WIRE 768 80 720 80
WIRE 208 96 208 80
WIRE -432 176 -432 64
WIRE -368 176 -432 176
WIRE -240 176 -240 48
WIRE -240 176 -368 176
WIRE -576 256 -576 -16
WIRE -368 256 -368 176
WIRE -368 256 -576 256
FLAG -1536 48 0
FLAG -800 16 0
FLAG -992 16 0
FLAG -992 -160 0
FLAG -800 -160 0
FLAG -896 16 0
FLAG -1200 -16 0
FLAG -512 -32 0
FLAG 208 96 0
SYMBOL voltage -1536 -64 R0
WINDOW 123 0 0 Left 0
WINDOW 39 0 0 Left 0
SYMATTR InstName V1
SYMATTR Value SINE(0 325 50 0 0 0 0)
SYMBOL res -1280 -80 R90
WINDOW 0 0 56 VBottom 2
WINDOW 3 32 56 VTop 2
SYMATTR InstName R1
SYMATTR Value 50
SYMBOL g -992 -96 R0
SYMATTR InstName G1
SYMATTR Value 1
SYMBOL g -800 -96 M0
WINDOW 0 -10 9 Right 2
WINDOW 3 -15 96 Right 2
SYMATTR InstName G2
SYMATTR Value {1/N}
SYMBOL g -1040 -240 M0
WINDOW 0 -10 10 Right 2
WINDOW 3 -16 104 Right 2
SYMATTR InstName G3
SYMATTR Value 1
SYMBOL g -752 -240 R0
WINDOW 0 13 18 Left 2
WINDOW 3 12 101 Left 2
SYMATTR InstName G4
SYMATTR Value {1/N}
SYMBOL res -912 -96 R0
SYMATTR InstName R2
SYMATTR Value 1G
SYMBOL diode -448 -224 R0
SYMATTR InstName D1
SYMATTR Value 1N914
SYMBOL diode -224 -128 R180
WINDOW 0 24 64 Left 2
WINDOW 3 24 0 Left 2
SYMATTR InstName D2
SYMATTR Value 1N914
SYMBOL diode -256 -16 R0
SYMATTR InstName D3
SYMATTR Value 1N914
SYMBOL diode -416 64 R180
WINDOW 0 24 64 Left 2
WINDOW 3 24 0 Left 2
SYMATTR InstName D4
SYMATTR Value 1N914
SYMBOL res 752 -64 R0
SYMATTR InstName RL
SYMATTR Value {RL}
SYMBOL cap 544 -32 R0
WINDOW 3 55 56 Right 1
SYMATTR InstName C2
SYMATTR Value 2200µ
SYMBOL AutoGenerated\\7805 656 0 R0
SYMATTR InstName U1
SYMBOL res 224 -96 R90
WINDOW 0 0 56 VBottom 2
WINDOW 3 32 56 VTop 2
SYMATTR InstName R3
SYMATTR Value 50
TEXT -960 128 Top 1 ;This example schematic is supplied for informational/educational purposes only.
TEXT -888 -264 Bottom 2 ;A ideal transformer with two windings.\nWinding ratio specified with parameter N
TEXT -1008 56 Left 2 !.param N=15/230 ; turns ratio
TEXT 328 160 Left 0 !.model 1N751 D(Is=1.004f Rs=.5875 Ikf=0 N=1 Xti=3 Eg=1.11 Cjo=160p M=.5484 Vj=.75 Fc=.5 Isr=1.8n Nr=2 Bv=5.1 Ibv=27.721m Nbv=1.1779 Ibvl=1.1646m Nbvl=21.894 Tbv1=176.47u Vpk=5.1 mfg=Motorola type=zener)
TEXT 344 224 Left 2 !.step param RL 100 5000 100
TEXT 344 328 Left 2 !.op
RECTANGLE Normal -624 72 -1152 -336 2
