Version 4
SHEET 1 1436 680
WIRE 464 -656 352 -656
WIRE 656 -656 544 -656
WIRE 704 -656 656 -656
WIRE 864 -656 800 -656
WIRE 992 -656 864 -656
WIRE 864 -624 864 -656
WIRE 352 -608 352 -656
WIRE 656 -608 656 -656
WIRE 992 -608 992 -656
WIRE 800 -592 800 -656
WIRE 800 -592 784 -592
WIRE 704 -576 704 -656
WIRE 720 -576 704 -576
WIRE 816 -560 784 -560
WIRE 352 -496 352 -528
WIRE 656 -496 656 -544
WIRE 656 -496 352 -496
WIRE 816 -496 816 -560
WIRE 816 -496 656 -496
WIRE 864 -496 864 -544
WIRE 864 -496 816 -496
WIRE 992 -480 992 -544
WIRE 352 -464 352 -496
FLAG 352 -464 0
FLAG 992 -480 0
SYMBOL voltage 352 -624 R0
WINDOW 123 0 0 Left 0
WINDOW 39 0 0 Left 0
SYMATTR InstName V1
SYMATTR Value 15
SYMBOL res 560 -672 R90
WINDOW 0 0 56 VBottom 2
WINDOW 3 32 56 VTop 2
SYMATTR InstName Rs1
SYMATTR Value 1k
SYMBOL res 848 -640 R0
SYMATTR InstName RL1
SYMATTR Value 624
SYMBOL cap 640 -608 R0
WINDOW 3 55 56 Right 1
SYMATTR InstName C1
SYMATTR Value 2200µ
SYMBOL AutoGenerated\\7805 752 -576 R0
SYMATTR InstName U1
SYMBOL cap 976 -608 R0
SYMATTR InstName C2
SYMATTR Value 5µ
TEXT 328 -432 Left 0 !;model 1N751 D(Is=1.004f Rs=.5875 Ikf=0 N=1 Xti=3 Eg=1.11 Cjo=160p M=.5484 Vj=.75 Fc=.5 Isr=1.8n Nr=2 Bv=5.1 Ibv=27.721m Nbv=1.1779 Ibvl=1.1646m Nbvl=21.894 Tbv1=176.47u Vpk=5.1 mfg=Motorola type=zener)
TEXT 360 -376 Left 2 !.noise V(n003) V1 dec 100 1 10k
