Version 4
SHEET 1 880 680
WIRE -48 -240 -160 -240
WIRE 80 -240 16 -240
WIRE 80 -224 80 -240
WIRE -160 -128 -160 -160
WIRE 80 -128 80 -144
WIRE 80 -128 -160 -128
WIRE -160 -112 -160 -128
FLAG -160 -112 0
SYMBOL res 64 -240 R0
WINDOW 0 36 40 Left 1
WINDOW 3 36 76 Left 1
SYMATTR InstName RL
SYMATTR Value 3.3k
SYMBOL voltage -160 -256 R0
WINDOW 0 34 25 Bottom 1
WINDOW 3 24 96 Left 1
WINDOW 123 0 0 Left 0
WINDOW 39 0 0 Left 0
SYMATTR InstName V1
SYMATTR Value SINE(0 15 50 0 0)
SYMBOL diode -48 -224 R270
WINDOW 0 32 32 VTop 1
WINDOW 3 0 32 VBottom 1
SYMATTR InstName D1
SYMATTR Value 1N914
TEXT -194 -88 Left 2 !.tran 0.1s
